
 OpenBabel11172020583D

 25 27  0  0  1  0  0  0  0  0999 V2000
   44.0140  -12.2230   15.4170 C   0  0  0  0  0  0  0  0  0  0  0  0
   44.7520  -13.1030   16.2290 C   0  0  0  0  0  0  0  0  0  0  0  0
   44.0630  -14.1190   16.9270 C   0  0  0  0  0  0  0  0  0  0  0  0
   42.6620  -14.2380   16.8230 C   0  0  0  0  0  0  0  0  0  0  0  0
   41.9280  -13.3610   16.0130 C   0  0  0  0  0  0  0  0  0  0  0  0
   42.6030  -12.3520   15.3040 C   0  0  0  0  0  0  0  0  0  0  0  0
   41.7940  -11.3770   14.4010 C   0  0  0  0  0  0  0  0  0  0  0  0
   41.1230  -12.2440   13.3970 N   0  0  0  0  0  0  0  0  0  0  0  0
   42.0530  -13.0610   12.5490 C   0  0  0  0  0  0  0  0  0  0  0  0
   42.3740  -12.2210   11.2880 C   0  0  0  0  0  0  0  0  0  0  0  0
   42.2920  -10.9850   11.2750 O   0  0  0  0  0  0  0  0  0  0  0  0
   42.6620  -12.8730   10.1330 O   0  0  0  0  0  0  0  0  0  0  0  0
   39.7990  -12.3410   13.3240 C   0  0  0  0  0  0  0  0  0  0  0  0
   39.0510  -11.7100   14.0540 O   0  0  0  0  0  0  0  0  0  0  0  0
   39.2640  -13.4780   12.3440 C   0  0  0  0  0  0  0  0  0  0  0  0
   39.3210  -14.7900   12.6740 N   0  0  0  0  0  0  0  0  0  0  0  0
   38.7530  -13.3830   11.0640 C   0  0  0  0  0  0  0  0  0  0  0  0
   38.4670  -14.6000   10.6270 N   0  0  0  0  0  0  0  0  0  0  0  0
   38.8100  -15.4840   11.6190 C   0  0  0  0  0  0  0  0  0  0  0  0
   38.7250  -16.8810   11.5870 C   0  0  0  0  0  0  0  0  0  0  0  0
   38.8420  -17.5450   10.3560 C   0  0  0  0  0  0  0  0  0  0  0  0
   38.7970  -18.9320   10.3090 C   0  0  0  0  0  0  0  0  0  0  0  0
   38.6550  -19.7140   11.4740 C   0  0  0  0  0  0  0  0  0  0  0  0
   38.5630  -19.0240   12.7090 C   0  0  0  0  0  0  0  0  0  0  0  0
   38.6070  -17.6420   12.7800 C   0  0  0  0  0  0  0  0  0  0  0  0
  1  2  1  0  0  0  0
  2  3  2  0  0  0  0
  4  3  1  0  0  0  0
  5  4  2  0  0  0  0
  6  1  2  0  0  0  0
  6  5  1  0  0  0  0
  7  6  1  0  0  0  0
  8  7  1  0  0  0  0
  9  8  1  0  0  0  0
 10  9  1  0  0  0  0
 11 10  1  0  0  0  0
 12 10  2  0  0  0  0
 13  8  1  0  0  0  0
 13 14  2  0  0  0  0
 15 16  1  0  0  0  0
 15 13  1  0  0  0  0
 17 15  2  0  0  0  0
 18 17  1  0  0  0  0
 18 19  1  0  0  0  0
 19 16  2  0  0  0  0
 20 19  1  0  0  0  0
 20 25  2  0  0  0  0
 21 20  1  0  0  0  0
 22 21  2  0  0  0  0
 22 23  1  0  0  0  0
 23 24  2  0  0  0  0
 24 25  1  0  0  0  0
M  END
>  <MOL Chiral Flag>
1

$$$$
