@<TRIPOS>MOLECULE
*****
 28 30 0 0 0
SMALL
GASTEIGER
Energy = 0

@<TRIPOS>ATOM
      1 C          44.0140  -12.2230   15.4170 C.ar    0  UNK0       -0.0026
      2 C          44.7520  -13.1030   16.2290 C.ar    0  UNK0       -0.0003
      3 C          44.0630  -14.1190   16.9270 C.ar    0  UNK0       -0.0000
      4 C          42.6620  -14.2380   16.8230 C.ar    0  UNK0       -0.0003
      5 C          41.9280  -13.3610   16.0130 C.ar    0  UNK0       -0.0026
      6 C          42.6030  -12.3520   15.3040 C.ar    0  UNK0       -0.0023
      7 C          41.7940  -11.3770   14.4010 C.3     0  UNK0        0.1210
      8 N          41.1230  -12.2440   13.3970 N.am    0  UNK0       -0.2606
      9 C          42.0530  -13.0610   12.5490 C.3     0  UNK0        0.2090
     10 C          42.3740  -12.2210   11.2880 C.2     0  UNK0        0.3848
     11 O          42.2920  -10.9850   11.2750 O.co2   0  UNK0       -0.2437
     12 O          42.6620  -12.8730   10.1330 O.co2   0  UNK0       -0.2437
     13 C          39.7990  -12.3410   13.3240 C.2     0  UNK0        0.2692
     14 O          39.0510  -11.7100   14.0540 O.2     0  UNK0       -0.2682
     15 C          39.2640  -13.4780   12.3440 C.ar    0  UNK0        0.1604
     16 N          39.3210  -14.7900   12.6740 N.ar    0  UNK0       -0.2202
     17 CA         38.7530  -13.3830   11.0640 C.ar    1  UNK1        0.1844
     18 C          38.5410  -12.1140   10.2210 C.2     1  UNK1        0.4068
     19 O          38.6650  -10.9860   10.7400 O.co2   1  UNK1       -0.2388
     20 OXT        38.2500  -12.2530    9.0170 O.co2   1  UNK1       -0.2388
     21 N          38.4670  -14.6000   10.6270 N.ar    1  UNK1       -0.2182
     22 C          38.8100  -15.4840   11.6190 C.ar    0  UNK0        0.1627
     23 C          38.7250  -16.8810   11.5870 C.ar    0  UNK0        0.0358
     24 C          38.8420  -17.5450   10.3560 C.ar    0  UNK0        0.0030
     25 C          38.7970  -18.9320   10.3090 C.ar    0  UNK0        0.0001
     26 C          38.6550  -19.7140   11.4740 C.ar    0  UNK0        0.0000
     27 C          38.5630  -19.0240   12.7090 C.ar    0  UNK0        0.0001
     28 C          38.6070  -17.6420   12.7800 C.ar    0  UNK0        0.0030
@<TRIPOS>BOND
     1     1     2   ar
     2     2     3   ar
     3     4     3   ar
     4     5     4   ar
     5     6     1   ar
     6     6     5   ar
     7     7     6    1
     8     8     7    1
     9     9     8    1
    10    10     9    1
    11    11    10   ar
    12    12    10   ar
    13    13     8   am
    14    13    14    2
    15    15    16   ar
    16    15    13    1
    17    17    15   ar
    18    18    19   ar
    19    18    17    1
    20    20    18   ar
    21    21    17   ar
    22    21    22   ar
    23    22    16   ar
    24    23    22    1
    25    23    28   ar
    26    24    23   ar
    27    25    24   ar
    28    25    26   ar
    29    26    27   ar
    30    27    28   ar

